LTspice 24.1.10 for Windows
Circuit: F:\GitHub\Electronics_Projects\VoltageProtector_1Phase\Simulate\v1.1.net
Start Time: Wed Nov 12 02:10:54 2025
solver = Normal
Maximum thread count: 2
tnom = 27
temp = 27
method = trap
WARNING: Node n005 is floating.

Direct Newton iteration for .op point succeeded.
Total elapsed time: 16.390 seconds.

Files loaded:
F:\GitHub\Electronics_Projects\VoltageProtector_1Phase\Simulate\v1.1.net
C:\Users\Home\AppData\Local\LTspice\lib\cmp\standard.dio
C:\Users\Home\AppData\Local\LTspice\lib\cmp\standard.bjt
F:\GitHub\Electronics_Exercises\_LTspice_Library\sub\MyLib\OpAmp\LM358.lib

