LTspice 24.1.10 for Windows
Circuit: F:\GitHub\Electronics_Projects\VoltageProtector_1Phase\Simulate\v1.2.net
Start Time: Wed Nov 12 02:20:39 2025
solver = Normal
Maximum thread count: 2
tnom = 27
temp = 27
method = trap
WARNING: Node n006 is floating.

Early termination of direct N-R iteration.
Direct Newton iteration failed to find .op point.  (Use ".option noopiter" to skip.)
Starting Gmin stepping
Gmin = 10
vernier = 0.5
Gmin = 1.67772
vernier = 0.25
vernier = 0.125
Gmin = 1.20453
vernier = 0.0625
vernier = 0.0833333
vernier = 0.0416667
Gmin = 1.12594
vernier = 0.0208333
vernier = 0.0277778
vernier = 0.0138889
Gmin = 1.09327
vernier = 0.0185185
vernier = 0.00925925
Gmin = 1.06829
vernier = 0.0123457
vernier = 0.00617283
vernier = 0.00823044
Gmin = 1.0533
vernier = 0.00411522
vernier = 0.00548696
Gmin = 1.0436
vernier = 0.00274348
vernier = 0.00365797
Gmin = 1.03718
vernier = 0.00182899
vernier = 0.00243865
Gmin = 1.03229
vernier = 0.00325153
vernier = 0.00162576
Gmin = 1.0279
vernier = 0.00216769
vernier = 0.00108384
vernier = 0.00144512
Gmin = 1.0253
vernier = 0.00192683
vernier = 0.000963415
Gmin = 1.02271
vernier = 0.00128455
vernier = 0.000642277
Gmin = 1.02058
vernier = 0.000856369
vernier = 0.00114182
Gmin = 1.01849
vernier = 0.000570912
vernier = 0.000761216
Gmin = 1.01728
vernier = 0.00101495
vernier = 0.000507477
vernier = 0.000676636
Gmin = 1.01607
vernier = 0.000902182
vernier = 0.000451091
Gmin = 1.01487
vernier = 0.000601454
vernier = 0.000451091
Gmin = 1.01388
vernier = 0.000601454
vernier = 0.000451091
vernier = 0.000601454
vernier = 0.000451091
Gmin = 1.01319
vernier = 0.000601454
vernier = 0.00045109
Gmin = 1.01228
Gmin = 0
Gmin stepping failed

Starting source stepping with srcstepmethod=0
Source Step = 3.0303%
Source Step = 33.3333%
Source Step = 63.6364%
Source Step = 93.9394%
Source stepping succeeded in finding the operating point.

Total elapsed time: 20.745 seconds.

Files loaded:
F:\GitHub\Electronics_Projects\VoltageProtector_1Phase\Simulate\v1.2.net
C:\Users\Home\AppData\Local\LTspice\lib\cmp\standard.dio
C:\Users\Home\AppData\Local\LTspice\lib\cmp\standard.bjt
F:\GitHub\Electronics_Exercises\_LTspice_Library\sub\MyLib\OpAmp\LM358.lib

